v {xschem version=2.9.9 file_version=1.2 }
G {}
K {}
V {}
S {}
E {}
N 560 -1040 560 -1010 { lab=Vdd}
N 550 -1040 560 -1040 { lab=Vdd}
N 550 -830 560 -830 { lab=0}
N 560 -850 560 -830 { lab=0}
N 720 -930 720 -920 { lab=#net1}
N 680 -930 720 -930 { lab=#net1}
N 720 -860 720 -830 { lab=0}
N 560 -830 720 -830 { lab=0}
C {devices/code_shown.sym} 785 -1025 0 0 {name=NGSPICE
only_toplevel=true
value="
*Temerature variation
*vin Vdd 0 1.8
*.DC TEMP -40 120 0.5
*Supply variation
*vin Vdd 0 1.8
*.DC vin 0 2 0.05
*Transient analysis
vin Vdd 0 dc 0 pwl(0 0 100u 0 200u 1.8 500u 1.8)
.tran 100u 500u
*PSRR analysis
*vin vdd 0 DC 1.8 AC 1  
*.ac dec 10 1 100MEG
.end
" }
C {devices/code.sym} 325 -965 0 0 {name=TT_MODELS
spice_ignore=false
only_toplevel=true
format="tcleval( @value )"
value="
.include \\\\$::SKYWATER_MODELS\\\\/cells/nfet_01v8/sky130_fd_pr__nfet_01v8__tt.corner.spice
.include \\\\$::SKYWATER_MODELS\\\\/cells/nfet_01v8_lvt/sky130_fd_pr__nfet_01v8_lvt__tt.corner.spice
.include \\\\$::SKYWATER_MODELS\\\\/cells/pfet_01v8/sky130_fd_pr__pfet_01v8__tt.corner.spice
.include \\\\$::SKYWATER_MODELS\\\\/cells/nfet_03v3_nvt/sky130_fd_pr__nfet_03v3_nvt__tt.corner.spice
.include \\\\$::SKYWATER_MODELS\\\\/cells/nfet_05v0_nvt/sky130_fd_pr__nfet_05v0_nvt__tt.corner.spice
.include \\\\$::SKYWATER_MODELS\\\\/cells/esd_nfet_01v8/sky130_fd_pr__esd_nfet_01v8__tt.corner.spice
.include \\\\$::SKYWATER_MODELS\\\\/cells/pfet_01v8_lvt/sky130_fd_pr__pfet_01v8_lvt__tt.corner.spice
.include \\\\$::SKYWATER_MODELS\\\\/cells/pfet_01v8_hvt/sky130_fd_pr__pfet_01v8_hvt__tt.corner.spice
.include \\\\$::SKYWATER_MODELS\\\\/cells/esd_pfet_g5v0d10v5/sky130_fd_pr__esd_pfet_g5v0d10v5__tt.corner.spice
.include \\\\$::SKYWATER_MODELS\\\\/cells/pfet_g5v0d10v5/sky130_fd_pr__pfet_g5v0d10v5__tt.corner.spice
.include \\\\$::SKYWATER_MODELS\\\\/cells/pfet_g5v0d16v0/sky130_fd_pr__pfet_g5v0d16v0__tt.corner.spice
.include \\\\$::SKYWATER_MODELS\\\\/cells/nfet_g5v0d10v5/sky130_fd_pr__nfet_g5v0d10v5__tt.corner.spice
.include \\\\$::SKYWATER_MODELS\\\\/cells/nfet_g5v0d16v0/sky130_fd_pr__nfet_g5v0d16v0__tt_discrete.corner.spice
.include \\\\$::SKYWATER_MODELS\\\\/cells/esd_nfet_g5v0d10v5/sky130_fd_pr__esd_nfet_g5v0d10v5__tt.corner.spice
.include \\\\$::SKYWATER_MODELS\\\\/models/corners/tt/nonfet.spice
* Mismatch parameters
.include \\\\$::SKYWATER_MODELS\\\\/cells/nfet_01v8/sky130_fd_pr__nfet_01v8__mismatch.corner.spice
.include \\\\$::SKYWATER_MODELS\\\\/cells/pfet_01v8/sky130_fd_pr__pfet_01v8__mismatch.corner.spice
.include \\\\$::SKYWATER_MODELS\\\\/cells/nfet_01v8_lvt/sky130_fd_pr__nfet_01v8_lvt__mismatch.corner.spice
.include \\\\$::SKYWATER_MODELS\\\\/cells/pfet_01v8_lvt/sky130_fd_pr__pfet_01v8_lvt__mismatch.corner.spice
.include \\\\$::SKYWATER_MODELS\\\\/cells/pfet_01v8_hvt/sky130_fd_pr__pfet_01v8_hvt__mismatch.corner.spice
.include \\\\$::SKYWATER_MODELS\\\\/cells/nfet_g5v0d10v5/sky130_fd_pr__nfet_g5v0d10v5__mismatch.corner.spice
.include \\\\$::SKYWATER_MODELS\\\\/cells/pfet_g5v0d10v5/sky130_fd_pr__pfet_g5v0d10v5__mismatch.corner.spice
.include \\\\$::SKYWATER_MODELS\\\\/cells/nfet_05v0_nvt/sky130_fd_pr__nfet_05v0_nvt__mismatch.corner.spice
.include \\\\$::SKYWATER_MODELS\\\\/cells/nfet_03v3_nvt/sky130_fd_pr__nfet_03v3_nvt__mismatch.corner.spice
* Resistor\\\\$::SKYWATER_MODELS\\\\/Capacitor
.include \\\\$::SKYWATER_MODELS\\\\/models/r+c/res_typical__cap_typical.spice
.include \\\\$::SKYWATER_MODELS\\\\/models/r+c/res_typical__cap_typical__lin.spice
* Special cells
.include \\\\$::SKYWATER_MODELS\\\\/models/corners/tt/specialized_cells.spice
* All models
.include \\\\$::SKYWATER_MODELS\\\\/models/all.spice
* Corner
.include \\\\$::SKYWATER_MODELS\\\\/models/corners/tt/rf.spice
"}
C {devices/lab_pin.sym} 550 -1040 0 0 {name=l1 sig_type=std_logic lab=Vdd}
C {devices/lab_pin.sym} 550 -830 0 0 {name=l2 sig_type=std_logic lab=0}
C {devices/vsource.sym} 720 -890 0 0 {name=V1 value=0}
C {/home/eslam/Analog_Design/Reference_Current/Schematic/Reference_Current.sym} 560 -930 0 0 {name=x1}
